# Dreiding potential information
#read_restart	restart.CG_300C_100DP_v9_equilibrate_lj_kg_uk_4.dreiding5
read_data	CG_256C_128DP_d0p25_cp10_cv10.data
  orthogonal box = (0 0 0) to (51 51 51)
  reading atoms ...
  32768 atoms
  scanning bonds ...
  scanning angles ...
  scanning dihedrals ...
  reading bonds ...
  32512 bonds
  reading angles ...
  32256 angles
  reading dihedrals ...
  32000 dihedrals
neighbor	0.5 bin
neigh_modify	every 1 delay 0 check yes
bond_style      fene
bond_coeff	1 30 1.5 1 1
special_bonds	fene
pair_style soft 1.122
pair_coeff * * $(4 + 0.024*step)
pair_coeff * * 4
#pair_style	lj/cut/coul/cut 2.5
#kspace_style ewald 1.0e-2
pair_coeff	* * 1 1
dump positions all custom 200 CG_256C_128DP_v20_equilibrate_lj_kg_uk_1.lammpstrj id mol type xs ys zs
dump positions2 all custom 200 CG_256C_128DP_v20_equilibrate_lj_kg_uk_1.unwrapped.lammpstrj id mol type xu yu zu
#dielectric 3

### Equilibration Stage 0
fix 1 all nvt temp 1.5 1.5 $(100.0*dt)
fix 1 all nvt temp 1.5 1.5 0.5
fix extra all print 100 "Value of A: $(4 + 0.024*step)"
thermo_style	custom step temp press density pe ke etotal evdwl epair ebond ecoul
thermo          100
timestep	0.005
reset_timestep 0
run		4000
  update every 1 steps, delay 0 steps, check yes
Step Temp Press Density PotEng KinEng TotEng E_vdwl E_pair E_bond E_coul
0            0    -2.320289   0.24702415    21.274512            0    21.274512   0.59950716   0.59950716    20.675005            0
Value of A: 6.4000000000000003553
Value of A: 8.8000000000000007105
Value of A: 11.199999999999999289
Value of A: 13.599999999999999645
Value of A: 16
Value of A: 18.399999999999998579
Value of A: 20.800000000000000711
Value of A: 23.199999999999999289
Value of A: 25.600000000000001421
Value of A: 28
Value of A: 30.400000000000002132
Value of A: 32.799999999999997158
Value of A: 35.200000000000002842
Value of A: 37.600000000000001421
Value of A: 40
Value of A: 42.399999999999998579
Value of A: 44.800000000000004263
Value of A: 47.200000000000002842
Value of A: 49.600000000000001421
Value of A: 52
Value of A: 54.399999999999998579
Value of A: 56.800000000000004263
Value of A: 59.200000000000002842
Value of A: 61.600000000000001421
Value of A: 64
Value of A: 66.400000000000005684
Value of A: 68.799999999999997158
Value of A: 71.200000000000002842
Value of A: 73.600000000000008527
Value of A: 76
Value of A: 78.400000000000005684
Value of A: 80.799999999999997158
Value of A: 83.200000000000002842
Value of A: 85.600000000000008527
Value of A: 88
Value of A: 90.400000000000005684
Value of A: 92.799999999999997158
Value of A: 95.200000000000002842
Value of A: 97.600000000000008527
Value of A: 100
Loop time of 89.7705 on 1 procs for 4000 steps with 32768 atoms

unfix 1
write_restart 	restart.CG_256C_128DP_v20_equilibrate_lj_kg_uk_1.dreiding0

######################################################
#### Equilibration Stage 1 (Langevin dynamics at 500 K)
#velocity 	all create 1.5 1231
#fix		1 all nve/limit 0.05
#fix		2 all langevin 1.5 1.5 $(10.0*dt) 904297
##compute 1 all bond/local dist engpot force
##compute 2 all pair/local dist eng force
##compute 3 all reduce ave c_1[*] c_2[*]
#thermo_style	custom step temp press density pe ke etotal evdwl epair ebond ecoul
#thermo          1000
#timestep	0.005
#reset_timestep  0
#run		2000000
#unfix 1
#unfix 2
#
############################################################
#### Equilibration Stage 2 (NPT dynamics at 500 K)
#fix		1 all npt temp 1.5 1.5 $(100*dt) iso 0 0 $(1000*dt)
#fix  		2 all momentum 1 linear 1 1 1
#thermo_style	custom step temp press density pe ke etotal evdwl epair ebond ecoul
#thermo          1000
#timestep	0.005
#reset_timestep	0
#run		10000000
#unfix 1
#unfix 2
####
########################################################
#### Equilibration Stage 3 (NPT dynamics from 500 K --> 100 K)
#fix		1 all npt temp 1.5 1.0 $(100*dt) iso 0 0 $(1000*dt)
#fix		2 all momentum 1 linear 1 1 1
#thermo_style	custom step temp press density pe ke etotal evdwl epair ebond ecoul
#thermo          1000
#timestep	0.005
#reset_timestep 	0
#
#run		10000000
#unfix 1
#unfix 2
###
#######################################################
###### Equilibration Stage 4 (NPT dynamics at 100 K)
#fix		1 all npt temp 1.0 1.0 $(100*dt) iso 0 0 $(1000*dt)
#fix		2 all momentum 1 linear 1 1 1
#thermo_style	custom step temp press density pe ke etotal evdwl epair ebond ecoul
#thermo          1000
#timestep	0.005
#reset_timestep 	0
#
#run		10000000
#unfix 1
#unfix 2
#
###### Equilibration Stage 5 (NPT dynamics WITH COULOMBIC INTERACTIONS TURNED ON)
#fix		1 all npt temp 1.0 1.0 $(100*dt) iso 0 0 $(1000*dt) drag 2
#fix		2 all momentum 1 linear 1 1 1
#thermo_style	custom step temp press density pe ke etotal evdwl epair ebond ecoul
#thermo          1000
#timestep	0.005
#reset_timestep 	0
#
#run		10000000
#unfix 1
#unfix 2
###
#
######################################################
### Uniaxial Tensile Deformation
##run 0
##variable tmp equal "lx"
##variable strain equal "(lx - v_L0)/v_L0"
##variable p1 equal "v_strain"
##variable p2 equal "-pxx/10000*1.01325"
##variable p3 equal "-pyy/10000*1.01325"
##variable p4 equal "-pzz/10000*1.01325"
##variable p5 equal "lx"
##variable p6 equal "ly"
##variable p7 equal "lz"
##variable p8 equal "temp"
##variable t2 equal "epair"
##variable t3 equal "ebond"
##variable t4 equal "eangle"
##variable t5 equal "edihed"
###fix kick all efield 1.0 0.0 0.0
##fix		1 all npt temp 100 100 50 y 0 0 1000 z 0 0 1000 drag 2
##fix		2 all deform 1 x erate 1e-6 units box remap x
##thermo_style	custom step temp density pxx pyy pzz etotal ke pe evdwl epair ebond ecoul
##thermo          100
##timestep	0.5
##reset_timestep	0
##run		600000
##unfix 1
##unfix 2
##unfix def1
##unfix def2
##
#print "All done"
